5gs4_ligand_vina_out.pdbqt
 OpenBabel08302322363D

 32 36  0  0  1  0  0  0  0  0999 V2000
   -3.5370    3.2730    7.8870 O   0  0  0  0  0  0  0  0  0  0  0  0
   -4.1670    3.1970    6.6330 C   0  0  0  0  0  0  0  0  0  0  0  0
   -5.4090    3.0980    4.1100 C   0  0  0  0  0  0  0  0  0  0  0  0
   -4.7010    4.2100    4.5050 C   0  0  0  0  0  3  0  0  0  0  0  0
   -5.4930    2.0380    4.9780 C   0  0  0  0  0  3  0  0  0  0  0  0
   -4.0950    4.2540    5.7420 C   0  0  0  0  0  3  0  0  0  0  0  0
   -4.8760    2.0840    6.2330 C   0  0  0  0  0  3  0  0  0  0  0  0
   -6.0590    3.0460    2.7970 C   0  0  2  0  0  3  0  0  0  0  0  0
   -9.8170   -0.4430    2.7370 C   0  0  0  0  0  0  0  0  0  0  0  0
  -10.3740    0.7830    2.9610 C   0  0  0  0  0  3  0  0  0  0  0  0
   -8.4380   -0.5430    2.5440 C   0  0  0  0  0  3  0  0  0  0  0  0
   -9.5770    1.8940    2.9930 C   0  0  0  0  0  3  0  0  0  0  0  0
   -7.6420    0.5400    2.5720 C   0  0  0  0  0  0  0  0  0  0  0  0
   -8.1980    1.7800    2.7980 C   0  0  0  0  0  0  0  0  0  0  0  0
   -5.8980    0.4170    2.3280 S   0  0  0  0  0  0  0  0  0  0  0  0
   -7.4450    2.9160    2.8390 O   0  0  0  0  0  0  0  0  0  0  0  0
   -5.4280    2.1170    1.8060 C   0  0  2  0  0  3  0  0  0  0  0  0
  -10.6130   -1.5630    2.7040 O   0  0  0  0  0  0  0  0  0  0  0  0
  -10.3910   -2.4000    3.2120 H   0  0  0  0  0  0  0  0  0  0  0  0
   -3.9600    2.2600    1.6640 C   0  0  0  0  0  3  0  0  0  0  0  0
   -3.5370    1.3740    0.4820 C   0  0  0  0  0  2  0  0  0  0  0  0
   -3.6810    3.6300    1.0390 C   0  0  0  0  0  2  0  0  0  0  0  0
   -4.2580    2.0180   -0.6720 C   0  0  0  0  0  2  0  0  0  0  0  0
   -4.3110    3.4720   -0.3380 C   0  0  0  0  0  2  0  0  0  0  0  0
   -2.6600    2.2180    8.2240 C   0  0  0  0  0  2  0  0  0  0  0  0
   -1.2600    2.4570    7.7600 C   0  0  0  0  0  2  0  0  0  0  0  0
   -0.6610    1.3930    7.0310 N   0  0  0  0  0  0  0  0  0  0  0  0
   -1.6040    0.3450    6.6860 C   0  0  0  0  0  2  0  0  0  0  0  0
    0.1950    1.7510    5.9530 C   0  0  0  0  0  2  0  0  0  0  0  0
   -1.7020    0.1060    5.2040 C   0  0  0  0  0  2  0  0  0  0  0  0
   -0.5460    2.2190    4.7240 C   0  0  0  0  0  2  0  0  0  0  0  0
   -1.8360    1.4530    4.5250 C   0  0  0  0  0  2  0  0  0  0  0  0
  1 25  1  0  0  0  0
  2  1  1  0  0  0  0
  3  4  2  0  0  0  0
  3  5  1  0  0  0  0
  4  6  1  0  0  0  0
  5  7  2  0  0  0  0
  6  2  2  0  0  0  0
  7  2  1  0  0  0  0
  8 16  1  0  0  0  0
  8  3  1  1  0  0  0
  9 10  1  0  0  0  0
 10 12  2  0  0  0  0
 11 13  1  0  0  0  0
 11  9  2  0  0  0  0
 13 14  2  0  0  0  0
 14 16  1  0  0  0  0
 14 12  1  0  0  0  0
 15 13  1  0  0  0  0
 17 20  1  1  0  0  0
 17 15  1  0  0  0  0
 17  8  1  0  0  0  0
 18  9  1  0  0  0  0
 18 19  1  0  0  0  0
 21 20  1  0  0  0  0
 22 20  1  0  0  0  0
 23 24  1  0  0  0  0
 23 21  1  0  0  0  0
 24 22  1  0  0  0  0
 26 25  1  0  0  0  0
 27 26  1  0  0  0  0
 28 27  1  0  0  0  0
 29 27  1  0  0  0  0
 30 28  1  0  0  0  0
 31 29  1  0  0  0  0
 32 31  1  0  0  0  0
 32 30  1  0  0  0  0
M  END
>  <Pose>
1

>  <Score>
-5.842

$$$$
5gs4_ligand_vina_out.pdbqt
 OpenBabel08302322363D

 32 36  0  0  1  0  0  0  0  0999 V2000
   -3.9670   -0.4840    5.8200 O   0  0  0  0  0  0  0  0  0  0  0  0
   -4.4230   -0.1530    4.5310 C   0  0  0  0  0  0  0  0  0  0  0  0
   -5.2960    0.5520    1.9510 C   0  0  0  0  0  0  0  0  0  0  0  0
   -4.2810    1.2490    2.5690 C   0  0  0  0  0  3  0  0  0  0  0  0
   -5.8690   -0.4960    2.6260 C   0  0  0  0  0  3  0  0  0  0  0  0
   -3.8580    0.9000    3.8330 C   0  0  0  0  0  3  0  0  0  0  0  0
   -5.4370   -0.8490    3.9100 C   0  0  0  0  0  3  0  0  0  0  0  0
   -5.7530    0.9210    0.6080 C   0  0  2  0  0  3  0  0  0  0  0  0
   -2.0590    3.3440   -1.9960 C   0  0  0  0  0  0  0  0  0  0  0  0
   -2.0500    2.0290   -2.3630 C   0  0  0  0  0  3  0  0  0  0  0  0
   -3.0080    3.7910   -1.0760 C   0  0  0  0  0  3  0  0  0  0  0  0
   -2.9690    1.1690   -1.8260 C   0  0  0  0  0  3  0  0  0  0  0  0
   -3.9170    2.9580   -0.5410 C   0  0  0  0  0  0  0  0  0  0  0  0
   -3.9130    1.6300   -0.9060 C   0  0  0  0  0  0  0  0  0  0  0  0
   -5.1190    3.5200    0.6240 S   0  0  0  0  0  0  0  0  0  0  0  0
   -4.8090    0.7350   -0.4000 O   0  0  0  0  0  0  0  0  0  0  0  0
   -6.4420    2.2470    0.5070 C   0  0  2  0  0  3  0  0  0  0  0  0
   -1.1370    4.2120   -2.5320 O   0  0  0  0  0  0  0  0  0  0  0  0
   -0.3990    4.6200   -1.9890 H   0  0  0  0  0  0  0  0  0  0  0  0
   -7.5090    2.4730    1.5100 C   0  0  0  0  0  3  0  0  0  0  0  0
   -8.1770    3.8110    1.1590 C   0  0  0  0  0  2  0  0  0  0  0  0
   -8.6740    1.5370    1.1730 C   0  0  0  0  0  2  0  0  0  0  0  0
   -8.7610    3.5290   -0.2000 C   0  0  0  0  0  2  0  0  0  0  0  0
   -9.1220    2.0800   -0.1770 C   0  0  0  0  0  2  0  0  0  0  0  0
   -2.5880   -0.7550    5.9560 C   0  0  0  0  0  2  0  0  0  0  0  0
   -2.0380   -0.3140    7.2730 C   0  0  0  0  0  2  0  0  0  0  0  0
   -1.1380    0.7870    7.2300 N   0  0  0  0  0  0  0  0  0  0  0  0
   -1.0080    1.3570    5.9010 C   0  0  0  0  0  2  0  0  0  0  0  0
   -1.2710    1.7700    8.2490 C   0  0  0  0  0  2  0  0  0  0  0  0
   -1.3770    2.8150    5.8480 C   0  0  0  0  0  2  0  0  0  0  0  0
   -2.4550    2.6870    8.0510 C   0  0  0  0  0  2  0  0  0  0  0  0
   -2.6880    2.9890    6.5860 C   0  0  0  0  0  2  0  0  0  0  0  0
  1 25  1  0  0  0  0
  2  1  1  0  0  0  0
  3  4  2  0  0  0  0
  3  5  1  0  0  0  0
  4  6  1  0  0  0  0
  5  7  2  0  0  0  0
  6  2  2  0  0  0  0
  7  2  1  0  0  0  0
  8  3  1  1  0  0  0
  9 11  1  0  0  0  0
 10  9  2  0  0  0  0
 10 12  1  0  0  0  0
 11 13  2  0  0  0  0
 12 14  2  0  0  0  0
 13 15  1  0  0  0  0
 14 13  1  0  0  0  0
 14 16  1  0  0  0  0
 16  8  1  0  0  0  0
 17  8  1  0  0  0  0
 17 15  1  0  0  0  0
 17 20  1  1  0  0  0
 18  9  1  0  0  0  0
 18 19  1  0  0  0  0
 21 20  1  0  0  0  0
 22 20  1  0  0  0  0
 23 24  1  0  0  0  0
 23 21  1  0  0  0  0
 24 22  1  0  0  0  0
 25 26  1  0  0  0  0
 27 26  1  0  0  0  0
 27 29  1  0  0  0  0
 28 27  1  0  0  0  0
 30 28  1  0  0  0  0
 30 32  1  0  0  0  0
 31 29  1  0  0  0  0
 32 31  1  0  0  0  0
M  END
>  <Pose>
2

>  <Score>
-5.652

$$$$
5gs4_ligand_vina_out.pdbqt
 OpenBabel08302322363D

 32 36  0  0  1  0  0  0  0  0999 V2000
   -3.5010   -0.9420    5.4940 O   0  0  0  0  0  0  0  0  0  0  0  0
   -4.3170   -0.5280    4.4270 C   0  0  0  0  0  0  0  0  0  0  0  0
   -5.9860    0.2560    2.3020 C   0  0  0  0  0  0  0  0  0  0  0  0
   -6.2640   -0.8730    3.0390 C   0  0  0  0  0  3  0  0  0  0  0  0
   -4.8740    0.9900    2.6310 C   0  0  0  0  0  3  0  0  0  0  0  0
   -5.4440   -1.2530    4.0790 C   0  0  0  0  0  3  0  0  0  0  0  0
   -4.0420    0.6030    3.6880 C   0  0  0  0  0  3  0  0  0  0  0  0
   -6.8530    0.6640    1.1920 C   0  0  2  0  0  3  0  0  0  0  0  0
   -5.3580    5.1670   -0.7550 C   0  0  0  0  0  0  0  0  0  0  0  0
   -4.8390    4.1710   -1.5300 C   0  0  0  0  0  3  0  0  0  0  0  0
   -6.1700    4.8360    0.3320 C   0  0  0  0  0  3  0  0  0  0  0  0
   -5.1190    2.8650   -1.2350 C   0  0  0  0  0  3  0  0  0  0  0  0
   -6.4540    3.5570    0.6340 C   0  0  0  0  0  0  0  0  0  0  0  0
   -5.9330    2.5470   -0.1450 C   0  0  0  0  0  0  0  0  0  0  0  0
   -7.4800    3.1340    2.0070 S   0  0  0  0  0  0  0  0  0  0  0  0
   -6.1840    1.2310    0.1090 O   0  0  0  0  0  0  0  0  0  0  0  0
   -8.0700    1.4440    1.5830 C   0  0  2  0  0  3  0  0  0  0  0  0
   -5.0790    6.4810   -1.0470 O   0  0  0  0  0  0  0  0  0  0  0  0
   -5.7940    7.1510   -1.2610 H   0  0  0  0  0  0  0  0  0  0  0  0
   -8.8640    0.8490    2.6840 C   0  0  0  0  0  3  0  0  0  0  0  0
   -9.9680    1.8590    3.0350 C   0  0  0  0  0  2  0  0  0  0  0  0
   -9.7420   -0.2540    2.0860 C   0  0  0  0  0  2  0  0  0  0  0  0
  -10.7660    1.9150    1.7600 C   0  0  0  0  0  2  0  0  0  0  0  0
  -10.6590    0.5470    1.1720 C   0  0  0  0  0  2  0  0  0  0  0  0
   -2.2670   -0.2730    5.6480 C   0  0  0  0  0  2  0  0  0  0  0  0
   -2.0190    0.1720    7.0530 C   0  0  0  0  0  2  0  0  0  0  0  0
   -1.7710    1.5610    7.2260 N   0  0  0  0  0  0  0  0  0  0  0  0
   -1.7520    2.2910    5.9720 C   0  0  0  0  0  2  0  0  0  0  0  0
   -2.5050    2.2250    8.2470 C   0  0  0  0  0  2  0  0  0  0  0  0
   -2.7710    3.3970    5.9190 C   0  0  0  0  0  2  0  0  0  0  0  0
   -3.9440    2.4950    7.8780 C   0  0  0  0  0  2  0  0  0  0  0  0
   -4.0890    2.8380    6.4110 C   0  0  0  0  0  2  0  0  0  0  0  0
  1 25  1  0  0  0  0
  2  1  1  0  0  0  0
  3  5  2  0  0  0  0
  3  4  1  0  0  0  0
  4  6  2  0  0  0  0
  5  7  1  0  0  0  0
  6  2  1  0  0  0  0
  7  2  2  0  0  0  0
  8 17  1  0  0  0  0
  8  3  1  1  0  0  0
  9 11  1  0  0  0  0
 10 12  1  0  0  0  0
 10  9  2  0  0  0  0
 11 13  2  0  0  0  0
 12 14  2  0  0  0  0
 13 15  1  0  0  0  0
 14 16  1  0  0  0  0
 14 13  1  0  0  0  0
 16  8  1  0  0  0  0
 17 15  1  0  0  0  0
 17 20  1  1  0  0  0
 18  9  1  0  0  0  0
 19 18  1  0  0  0  0
 20 21  1  0  0  0  0
 22 20  1  0  0  0  0
 23 21  1  0  0  0  0
 24 23  1  0  0  0  0
 24 22  1  0  0  0  0
 25 26  1  0  0  0  0
 26 27  1  0  0  0  0
 27 29  1  0  0  0  0
 28 27  1  0  0  0  0
 30 28  1  0  0  0  0
 30 32  1  0  0  0  0
 31 29  1  0  0  0  0
 32 31  1  0  0  0  0
M  END
>  <Pose>
3

>  <Score>
-5.477

$$$$
5gs4_ligand_vina_out.pdbqt
 OpenBabel08302322363D

 32 36  0  0  1  0  0  0  0  0999 V2000
   -1.5880    3.3060    6.9910 O   0  0  0  0  0  0  0  0  0  0  0  0
   -2.4130    3.4640    5.8640 C   0  0  0  0  0  0  0  0  0  0  0  0
   -4.1090    3.7930    3.6440 C   0  0  0  0  0  0  0  0  0  0  0  0
   -4.5790    3.9780    4.9250 C   0  0  0  0  0  3  0  0  0  0  0  0
   -2.7920    3.4450    3.4780 C   0  0  0  0  0  3  0  0  0  0  0  0
   -3.7440    3.8160    6.0090 C   0  0  0  0  0  3  0  0  0  0  0  0
   -1.9460    3.2800    4.5800 C   0  0  0  0  0  3  0  0  0  0  0  0
   -4.9930    3.9610    2.4860 C   0  0  2  0  0  3  0  0  0  0  0  0
   -9.6670    5.4900    3.9440 C   0  0  0  0  0  0  0  0  0  0  0  0
   -8.9560    6.5900    3.5570 C   0  0  0  0  0  3  0  0  0  0  0  0
   -9.0740    4.2290    3.8590 C   0  0  0  0  0  3  0  0  0  0  0  0
   -7.6780    6.4440    3.0940 C   0  0  0  0  0  3  0  0  0  0  0  0
   -7.8190    4.0700    3.4040 C   0  0  0  0  0  0  0  0  0  0  0  0
   -7.0970    5.1760    3.0130 C   0  0  0  0  0  0  0  0  0  0  0  0
   -7.0670    2.4760    3.2950 S   0  0  0  0  0  0  0  0  0  0  0  0
   -5.8200    5.0810    2.5440 O   0  0  0  0  0  0  0  0  0  0  0  0
   -5.7290    2.7290    2.0580 C   0  0  2  0  0  3  0  0  0  0  0  0
  -10.9520    5.6320    4.4110 O   0  0  0  0  0  0  0  0  0  0  0  0
  -11.7080    5.0520    4.0980 H   0  0  0  0  0  0  0  0  0  0  0  0
   -4.8860    1.5200    1.9080 C   0  0  0  0  0  3  0  0  0  0  0  0
   -5.8170    0.3760    1.4760 C   0  0  0  0  0  2  0  0  0  0  0  0
   -4.0820    1.6660    0.6130 C   0  0  0  0  0  2  0  0  0  0  0  0
   -6.3150    0.8590    0.1390 C   0  0  0  0  0  2  0  0  0  0  0  0
   -5.1860    1.6490   -0.4360 C   0  0  0  0  0  2  0  0  0  0  0  0
   -1.9920    2.3470    7.9460 C   0  0  0  0  0  2  0  0  0  0  0  0
   -1.5810    0.9580    7.5820 C   0  0  0  0  0  2  0  0  0  0  0  0
   -2.6200   -0.0140    7.5850 N   0  0  0  0  0  0  0  0  0  0  0  0
   -3.9250    0.5550    7.3040 C   0  0  0  0  0  2  0  0  0  0  0  0
   -2.3740   -1.2240    6.8790 C   0  0  0  0  0  2  0  0  0  0  0  0
   -4.5860   -0.0550    6.0980 C   0  0  0  0  0  2  0  0  0  0  0  0
   -2.4720   -1.0770    5.3790 C   0  0  0  0  0  2  0  0  0  0  0  0
   -3.5620   -0.1040    4.9830 C   0  0  0  0  0  2  0  0  0  0  0  0
  1 25  1  0  0  0  0
  2  6  1  0  0  0  0
  2  1  1  0  0  0  0
  3  4  1  0  0  0  0
  4  6  2  0  0  0  0
  5  3  2  0  0  0  0
  5  7  1  0  0  0  0
  7  2  2  0  0  0  0
  8 16  1  0  0  0  0
  8  3  1  1  0  0  0
  9 18  1  0  0  0  0
 10  9  2  0  0  0  0
 11  9  1  0  0  0  0
 12 10  1  0  0  0  0
 13 11  2  0  0  0  0
 14 12  2  0  0  0  0
 14 13  1  0  0  0  0
 15 13  1  0  0  0  0
 16 14  1  0  0  0  0
 17 20  1  1  0  0  0
 17  8  1  0  0  0  0
 17 15  1  0  0  0  0
 19 18  1  0  0  0  0
 21 20  1  0  0  0  0
 22 20  1  0  0  0  0
 23 21  1  0  0  0  0
 24 23  1  0  0  0  0
 24 22  1  0  0  0  0
 26 27  1  0  0  0  0
 26 25  1  0  0  0  0
 28 27  1  0  0  0  0
 29 27  1  0  0  0  0
 30 28  1  0  0  0  0
 31 29  1  0  0  0  0
 32 31  1  0  0  0  0
 32 30  1  0  0  0  0
M  END
>  <Pose>
4

>  <Score>
-5.429

$$$$
5gs4_ligand_vina_out.pdbqt
 OpenBabel08302322363D

 32 36  0  0  1  0  0  0  0  0999 V2000
   -9.0490    3.7870    3.3260 O   0  0  0  0  0  0  0  0  0  0  0  0
   -7.8130    3.1400    3.1520 C   0  0  0  0  0  0  0  0  0  0  0  0
   -5.3450    1.8220    2.8570 C   0  0  0  0  0  0  0  0  0  0  0  0
   -6.0890    1.6790    4.0070 C   0  0  0  0  0  3  0  0  0  0  0  0
   -5.8390    2.6230    1.8580 C   0  0  0  0  0  3  0  0  0  0  0  0
   -7.2970    2.3270    4.1470 C   0  0  0  0  0  3  0  0  0  0  0  0
   -7.0660    3.2800    2.0020 C   0  0  0  0  0  3  0  0  0  0  0  0
   -4.0570    1.1370    2.7040 C   0  0  2  0  0  3  0  0  0  0  0  0
   -1.4180    1.1710    7.1010 C   0  0  0  0  0  0  0  0  0  0  0  0
   -2.0640   -0.0280    6.9970 C   0  0  0  0  0  3  0  0  0  0  0  0
   -1.5400    2.1050    6.0700 C   0  0  0  0  0  3  0  0  0  0  0  0
   -2.8190   -0.2980    5.8890 C   0  0  0  0  0  3  0  0  0  0  0  0
   -2.2780    1.8530    4.9750 C   0  0  0  0  0  0  0  0  0  0  0  0
   -2.9320    0.6460    4.8650 C   0  0  0  0  0  0  0  0  0  0  0  0
   -2.4340    3.0320    3.6700 S   0  0  0  0  0  0  0  0  0  0  0  0
   -3.6950    0.3300    3.7800 O   0  0  0  0  0  0  0  0  0  0  0  0
   -2.9270    1.9990    2.2300 C   0  0  2  0  0  3  0  0  0  0  0  0
   -0.6580    1.4470    8.2130 O   0  0  0  0  0  0  0  0  0  0  0  0
   -1.0550    1.7940    9.0660 H   0  0  0  0  0  0  0  0  0  0  0  0
   -3.2310    2.8270    1.0400 C   0  0  0  0  0  3  0  0  0  0  0  0
   -1.9540    3.6150    0.7060 C   0  0  0  0  0  2  0  0  0  0  0  0
   -3.2590    1.9030   -0.1800 C   0  0  0  0  0  2  0  0  0  0  0  0
   -0.9820    2.5160    0.3680 C   0  0  0  0  0  2  0  0  0  0  0  0
   -1.8110    1.4350   -0.2430 C   0  0  0  0  0  2  0  0  0  0  0  0
  -10.0810    3.4390    2.4270 C   0  0  0  0  0  2  0  0  0  0  0  0
  -10.7200    2.1290    2.7560 C   0  0  0  0  0  2  0  0  0  0  0  0
  -10.7280    1.1650    1.7100 N   0  0  0  0  0  0  0  0  0  0  0  0
   -9.5780    1.2790    0.8310 C   0  0  0  0  0  2  0  0  0  0  0  0
  -11.0230   -0.1780    2.0720 C   0  0  0  0  0  2  0  0  0  0  0  0
   -8.7590    0.0180    0.7670 C   0  0  0  0  0  2  0  0  0  0  0  0
   -9.8780   -0.8830    2.7590 C   0  0  0  0  0  2  0  0  0  0  0  0
   -8.5410   -0.4650    2.1860 C   0  0  0  0  0  2  0  0  0  0  0  0
  2  1  1  0  0  0  0
  2  6  1  0  0  0  0
  3  4  1  0  0  0  0
  4  6  2  0  0  0  0
  5  7  1  0  0  0  0
  5  3  2  0  0  0  0
  7  2  2  0  0  0  0
  8  3  1  1  0  0  0
  8 16  1  0  0  0  0
  9 18  1  0  0  0  0
 10  9  1  0  0  0  0
 11  9  2  0  0  0  0
 12 10  2  0  0  0  0
 13 11  1  0  0  0  0
 14 13  2  0  0  0  0
 14 12  1  0  0  0  0
 15 13  1  0  0  0  0
 16 14  1  0  0  0  0
 17 20  1  6  0  0  0
 17  8  1  0  0  0  0
 17 15  1  0  0  0  0
 18 19  1  0  0  0  0
 21 20  1  0  0  0  0
 22 20  1  0  0  0  0
 23 21  1  0  0  0  0
 24 22  1  0  0  0  0
 24 23  1  0  0  0  0
 25 26  1  0  0  0  0
 25  1  1  0  0  0  0
 27 29  1  0  0  0  0
 27 26  1  0  0  0  0
 28 27  1  0  0  0  0
 29 31  1  0  0  0  0
 30 28  1  0  0  0  0
 30 32  1  0  0  0  0
 32 31  1  0  0  0  0
M  END
>  <Pose>
5

>  <Score>
-5.337

$$$$
5gs4_ligand_vina_out.pdbqt
 OpenBabel08302322363D

 32 36  0  0  1  0  0  0  0  0999 V2000
   -1.5240    3.3550    6.7740 O   0  0  0  0  0  0  0  0  0  0  0  0
   -2.2850    3.3610    5.5930 C   0  0  0  0  0  0  0  0  0  0  0  0
   -3.8560    3.3890    3.2590 C   0  0  0  0  0  0  0  0  0  0  0  0
   -4.4080    3.6860    4.4850 C   0  0  0  0  0  3  0  0  0  0  0  0
   -2.5200    3.0800    3.2040 C   0  0  0  0  0  3  0  0  0  0  0  0
   -3.6340    3.6700    5.6250 C   0  0  0  0  0  3  0  0  0  0  0  0
   -1.7360    3.0660    4.3630 C   0  0  0  0  0  3  0  0  0  0  0  0
   -4.6740    3.4000    2.0420 C   0  0  2  0  0  3  0  0  0  0  0  0
   -8.6390    0.1740    2.4600 C   0  0  0  0  0  0  0  0  0  0  0  0
   -9.0760    1.4320    2.7610 C   0  0  0  0  0  3  0  0  0  0  0  0
   -7.3080   -0.0170    2.0860 C   0  0  0  0  0  3  0  0  0  0  0  0
   -8.2070    2.4860    2.6940 C   0  0  0  0  0  3  0  0  0  0  0  0
   -6.4430    1.0100    2.0150 C   0  0  0  0  0  0  0  0  0  0  0  0
   -6.8770    2.2810    2.3190 C   0  0  0  0  0  0  0  0  0  0  0  0
   -4.7580    0.7730    1.5430 S   0  0  0  0  0  0  0  0  0  0  0  0
   -6.0490    3.3640    2.2650 O   0  0  0  0  0  0  0  0  0  0  0  0
   -4.2440    2.4450    0.9720 C   0  0  2  0  0  3  0  0  0  0  0  0
   -9.5080   -0.8890    2.5260 O   0  0  0  0  0  0  0  0  0  0  0  0
   -9.4230   -1.6960    1.9360 H   0  0  0  0  0  0  0  0  0  0  0  0
   -2.8010    2.4900    0.6390 C   0  0  0  0  0  3  0  0  0  0  0  0
   -2.5500    1.3950   -0.4090 C   0  0  0  0  0  2  0  0  0  0  0  0
   -2.5620    3.7170   -0.2460 C   0  0  0  0  0  2  0  0  0  0  0  0
   -3.3880    1.8650   -1.5680 C   0  0  0  0  0  2  0  0  0  0  0  0
   -3.3600    3.3560   -1.4910 C   0  0  0  0  0  2  0  0  0  0  0  0
   -1.9120    2.4380    7.7760 C   0  0  0  0  0  2  0  0  0  0  0  0
   -1.5200    1.0320    7.4590 C   0  0  0  0  0  2  0  0  0  0  0  0
   -2.5530    0.0610    7.5750 N   0  0  0  0  0  0  0  0  0  0  0  0
   -3.8700    0.6040    7.2980 C   0  0  0  0  0  2  0  0  0  0  0  0
   -2.3270   -1.1990    6.9570 C   0  0  0  0  0  2  0  0  0  0  0  0
   -4.5700   -0.1000    6.1670 C   0  0  0  0  0  2  0  0  0  0  0  0
   -2.4790   -1.1700    5.4540 C   0  0  0  0  0  2  0  0  0  0  0  0
   -3.5870   -0.2340    5.0240 C   0  0  0  0  0  2  0  0  0  0  0  0
  1 25  1  0  0  0  0
  2  6  1  0  0  0  0
  2  1  1  0  0  0  0
  3  4  1  0  0  0  0
  4  6  2  0  0  0  0
  5  3  2  0  0  0  0
  5  7  1  0  0  0  0
  7  2  2  0  0  0  0
  8 16  1  0  0  0  0
  8  3  1  1  0  0  0
  9 18  1  0  0  0  0
  9 10  1  0  0  0  0
 11  9  2  0  0  0  0
 12 10  2  0  0  0  0
 13 11  1  0  0  0  0
 13 14  2  0  0  0  0
 14 12  1  0  0  0  0
 15 13  1  0  0  0  0
 16 14  1  0  0  0  0
 17 20  1  1  0  0  0
 17 15  1  0  0  0  0
 17  8  1  0  0  0  0
 19 18  1  0  0  0  0
 21 20  1  0  0  0  0
 22 20  1  0  0  0  0
 23 24  1  0  0  0  0
 23 21  1  0  0  0  0
 24 22  1  0  0  0  0
 26 27  1  0  0  0  0
 26 25  1  0  0  0  0
 28 27  1  0  0  0  0
 29 27  1  0  0  0  0
 30 28  1  0  0  0  0
 31 29  1  0  0  0  0
 32 31  1  0  0  0  0
 32 30  1  0  0  0  0
M  END
>  <Pose>
6

>  <Score>
-5.324

$$$$
5gs4_ligand_vina_out.pdbqt
 OpenBabel08302322363D

 32 36  0  0  1  0  0  0  0  0999 V2000
   -2.6130    3.8470    5.6260 O   0  0  0  0  0  0  0  0  0  0  0  0
   -3.2150    3.2250    4.5180 C   0  0  0  0  0  0  0  0  0  0  0  0
   -4.3670    1.9710    2.2790 C   0  0  0  0  0  0  0  0  0  0  0  0
   -3.0010    2.0860    2.3980 C   0  0  0  0  0  3  0  0  0  0  0  0
   -5.1530    2.4830    3.2810 C   0  0  0  0  0  3  0  0  0  0  0  0
   -2.4410    2.7020    3.4970 C   0  0  0  0  0  3  0  0  0  0  0  0
   -4.5830    3.1070    4.3960 C   0  0  0  0  0  3  0  0  0  0  0  0
   -4.9690    1.3200    1.1110 C   0  0  2  0  0  3  0  0  0  0  0  0
   -2.9300    3.1030   -3.2440 C   0  0  0  0  0  0  0  0  0  0  0  0
   -2.3000    1.9350   -2.9220 C   0  0  0  0  0  3  0  0  0  0  0  0
   -3.9620    3.5720   -2.4290 C   0  0  0  0  0  3  0  0  0  0  0  0
   -2.6860    1.2420   -1.8090 C   0  0  0  0  0  3  0  0  0  0  0  0
   -4.3520    2.9000   -1.3320 C   0  0  0  0  0  0  0  0  0  0  0  0
   -3.7200    1.7220   -1.0010 C   0  0  0  0  0  0  0  0  0  0  0  0
   -5.6560    3.4900   -0.2970 S   0  0  0  0  0  0  0  0  0  0  0  0
   -4.0690    0.9940    0.0990 O   0  0  0  0  0  0  0  0  0  0  0  0
   -6.2100    1.9720    0.5830 C   0  0  2  0  0  3  0  0  0  0  0  0
   -2.5460    3.8050   -4.3620 O   0  0  0  0  0  0  0  0  0  0  0  0
   -2.6200    3.4280   -5.2890 H   0  0  0  0  0  0  0  0  0  0  0  0
   -7.2370    2.2770    1.6060 C   0  0  0  0  0  3  0  0  0  0  0  0
   -8.4160    2.9380    0.8740 C   0  0  0  0  0  2  0  0  0  0  0  0
   -7.9160    0.9610    1.9960 C   0  0  0  0  0  2  0  0  0  0  0  0
   -8.8760    1.8380   -0.0460 C   0  0  0  0  0  2  0  0  0  0  0  0
   -8.5980    0.5700    0.6920 C   0  0  0  0  0  2  0  0  0  0  0  0
   -2.7580    3.2010    6.8740 C   0  0  0  0  0  2  0  0  0  0  0  0
   -1.9870    1.9250    6.9600 C   0  0  0  0  0  2  0  0  0  0  0  0
   -2.7080    0.7990    7.4460 N   0  0  0  0  0  0  0  0  0  0  0  0
   -4.1390    0.9100    7.2290 C   0  0  0  0  0  2  0  0  0  0  0  0
   -2.1920   -0.4870    7.1230 C   0  0  0  0  0  2  0  0  0  0  0  0
   -4.6980   -0.2200    6.4070 C   0  0  0  0  0  2  0  0  0  0  0  0
   -2.4490   -0.8980    5.6930 C   0  0  0  0  0  2  0  0  0  0  0  0
   -3.7960   -0.4110    5.2060 C   0  0  0  0  0  2  0  0  0  0  0  0
  1 25  1  0  0  0  0
  2  1  1  0  0  0  0
  3  4  2  0  0  0  0
  3  5  1  0  0  0  0
  4  6  1  0  0  0  0
  5  7  2  0  0  0  0
  6  2  2  0  0  0  0
  7  2  1  0  0  0  0
  8  3  1  1  0  0  0
  9 10  2  0  0  0  0
  9 11  1  0  0  0  0
 10 12  1  0  0  0  0
 11 13  2  0  0  0  0
 12 14  2  0  0  0  0
 13 14  1  0  0  0  0
 13 15  1  0  0  0  0
 14 16  1  0  0  0  0
 15 17  1  0  0  0  0
 16  8  1  0  0  0  0
 17  8  1  0  0  0  0
 17 20  1  1  0  0  0
 18  9  1  0  0  0  0
 19 18  1  0  0  0  0
 20 22  1  0  0  0  0
 21 20  1  0  0  0  0
 23 24  1  0  0  0  0
 23 21  1  0  0  0  0
 24 22  1  0  0  0  0
 25 26  1  0  0  0  0
 26 27  1  0  0  0  0
 28 27  1  0  0  0  0
 29 27  1  0  0  0  0
 30 28  1  0  0  0  0
 31 29  1  0  0  0  0
 32 31  1  0  0  0  0
 32 30  1  0  0  0  0
M  END
>  <Pose>
7

>  <Score>
-5.308

$$$$
5gs4_ligand_vina_out.pdbqt
 OpenBabel08302322363D

 32 36  0  0  1  0  0  0  0  0999 V2000
   -3.6050    0.8640    7.4370 O   0  0  0  0  0  0  0  0  0  0  0  0
   -4.1360    0.7370    6.1420 C   0  0  0  0  0  0  0  0  0  0  0  0
   -5.2150    0.5390    3.5510 C   0  0  0  0  0  0  0  0  0  0  0  0
   -5.2560    1.7280    4.2440 C   0  0  0  0  0  3  0  0  0  0  0  0
   -4.6330   -0.5470    4.1560 C   0  0  0  0  0  3  0  0  0  0  0  0
   -4.7270    1.8200    5.5130 C   0  0  0  0  0  3  0  0  0  0  0  0
   -4.0960   -0.4510    5.4450 C   0  0  0  0  0  3  0  0  0  0  0  0
   -5.7790    0.4340    2.2020 C   0  0  2  0  0  3  0  0  0  0  0  0
   -3.9600    4.1340   -0.8490 C   0  0  0  0  0  0  0  0  0  0  0  0
   -3.2320    2.9990   -1.0690 C   0  0  0  0  0  3  0  0  0  0  0  0
   -5.0130    4.1030    0.0660 C   0  0  0  0  0  3  0  0  0  0  0  0
   -3.5430    1.8520   -0.3920 C   0  0  0  0  0  3  0  0  0  0  0  0
   -5.3300    2.9830    0.7380 C   0  0  0  0  0  0  0  0  0  0  0  0
   -4.5990    1.8360    0.5210 C   0  0  0  0  0  0  0  0  0  0  0  0
   -6.6620    2.9420    1.8970 S   0  0  0  0  0  0  0  0  0  0  0  0
   -4.8720    0.6680    1.1710 O   0  0  0  0  0  0  0  0  0  0  0  0
   -7.0770    1.1520    1.9930 C   0  0  2  0  0  3  0  0  0  0  0  0
   -3.6510    5.2890   -1.5270 O   0  0  0  0  0  0  0  0  0  0  0  0
   -3.3950    5.2960   -2.4960 H   0  0  0  0  0  0  0  0  0  0  0  0
   -8.1100    0.8840    3.0210 C   0  0  0  0  0  3  0  0  0  0  0  0
   -9.3910    1.6010    2.5650 C   0  0  0  0  0  2  0  0  0  0  0  0
   -8.5800   -0.5630    2.8470 C   0  0  0  0  0  2  0  0  0  0  0  0
   -9.7120    0.8910    1.2760 C   0  0  0  0  0  2  0  0  0  0  0  0
   -9.2330   -0.5100    1.4720 C   0  0  0  0  0  2  0  0  0  0  0  0
   -2.6950    1.9230    7.6500 C   0  0  0  0  0  2  0  0  0  0  0  0
   -1.2910    1.5630    7.2890 C   0  0  0  0  0  2  0  0  0  0  0  0
   -0.6020    2.5040    6.4740 N   0  0  0  0  0  0  0  0  0  0  0  0
    0.7990    2.1700    6.2900 C   0  0  0  0  0  2  0  0  0  0  0  0
   -1.2430    2.9080    5.2710 C   0  0  0  0  0  2  0  0  0  0  0  0
    1.1770    1.9980    4.8440 C   0  0  0  0  0  2  0  0  0  0  0  0
   -1.1830    1.8690    4.1770 C   0  0  0  0  0  2  0  0  0  0  0  0
    0.1310    1.1180    4.1930 C   0  0  0  0  0  2  0  0  0  0  0  0
  1 25  1  0  0  0  0
  2  1  1  0  0  0  0
  3  5  2  0  0  0  0
  3  4  1  0  0  0  0
  4  6  2  0  0  0  0
  5  7  1  0  0  0  0
  6  2  1  0  0  0  0
  7  2  2  0  0  0  0
  8  3  1  1  0  0  0
  9 11  1  0  0  0  0
 10  9  2  0  0  0  0
 10 12  1  0  0  0  0
 11 13  2  0  0  0  0
 12 14  2  0  0  0  0
 13 15  1  0  0  0  0
 14 13  1  0  0  0  0
 14 16  1  0  0  0  0
 15 17  1  0  0  0  0
 16  8  1  0  0  0  0
 17  8  1  0  0  0  0
 17 20  1  1  0  0  0
 18  9  1  0  0  0  0
 19 18  1  0  0  0  0
 21 20  1  0  0  0  0
 22 20  1  0  0  0  0
 23 24  1  0  0  0  0
 23 21  1  0  0  0  0
 24 22  1  0  0  0  0
 26 25  1  0  0  0  0
 27 26  1  0  0  0  0
 28 27  1  0  0  0  0
 29 27  1  0  0  0  0
 30 28  1  0  0  0  0
 31 32  1  0  0  0  0
 31 29  1  0  0  0  0
 32 30  1  0  0  0  0
M  END
>  <Pose>
8

>  <Score>
-5.247

$$$$
5gs4_ligand_vina_out.pdbqt
 OpenBabel08302322363D

 32 36  0  0  1  0  0  0  0  0999 V2000
   -1.8910    3.3800    5.5350 O   0  0  0  0  0  0  0  0  0  0  0  0
   -2.7250    2.9170    4.5010 C   0  0  0  0  0  0  0  0  0  0  0  0
   -4.4390    2.0140    2.4610 C   0  0  0  0  0  0  0  0  0  0  0  0
   -4.9320    2.7160    3.5380 C   0  0  0  0  0  3  0  0  0  0  0  0
   -3.0900    1.7660    2.4080 C   0  0  0  0  0  3  0  0  0  0  0  0
   -4.0880    3.1560    4.5350 C   0  0  0  0  0  3  0  0  0  0  0  0
   -2.2350    2.2140    3.4210 C   0  0  0  0  0  3  0  0  0  0  0  0
   -5.3320    1.5400    1.3990 C   0  0  2  0  0  3  0  0  0  0  0  0
   -6.0870    5.1810   -2.1330 C   0  0  0  0  0  0  0  0  0  0  0  0
   -5.1090    4.3410   -2.5840 C   0  0  0  0  0  3  0  0  0  0  0  0
   -6.6970    4.9220   -0.9040 C   0  0  0  0  0  3  0  0  0  0  0  0
   -4.7420    3.2610   -1.8300 C   0  0  0  0  0  3  0  0  0  0  0  0
   -6.3470    3.8640   -0.1530 C   0  0  0  0  0  0  0  0  0  0  0  0
   -5.3610    3.0140   -0.6020 C   0  0  0  0  0  0  0  0  0  0  0  0
   -7.1160    3.5340    1.4020 S   0  0  0  0  0  0  0  0  0  0  0  0
   -4.9600    1.9240    0.1130 O   0  0  0  0  0  0  0  0  0  0  0  0
   -6.7940    1.7400    1.6550 C   0  0  2  0  0  3  0  0  0  0  0  0
   -6.4600    6.2680   -2.8860 O   0  0  0  0  0  0  0  0  0  0  0  0
   -6.6140    6.2130   -3.8760 H   0  0  0  0  0  0  0  0  0  0  0  0
   -7.2630    1.2830    2.9840 C   0  0  0  0  0  3  0  0  0  0  0  0
   -8.7730    1.5620    3.0450 C   0  0  0  0  0  2  0  0  0  0  0  0
   -7.3120   -0.2480    2.9620 C   0  0  0  0  0  2  0  0  0  0  0  0
   -9.3060    0.6780    1.9480 C   0  0  0  0  0  2  0  0  0  0  0  0
   -8.3950   -0.5050    1.9240 C   0  0  0  0  0  2  0  0  0  0  0  0
   -2.1150    2.8420    6.8210 C   0  0  0  0  0  2  0  0  0  0  0  0
   -1.5640    1.4630    6.9770 C   0  0  0  0  0  2  0  0  0  0  0  0
   -2.4670    0.4910    7.4890 N   0  0  0  0  0  0  0  0  0  0  0  0
   -3.8580    0.8640    7.3100 C   0  0  0  0  0  2  0  0  0  0  0  0
   -2.2070   -0.8690    7.1620 C   0  0  0  0  0  2  0  0  0  0  0  0
   -4.6390   -0.1440    6.5110 C   0  0  0  0  0  2  0  0  0  0  0  0
   -2.5750   -1.2280    5.7420 C   0  0  0  0  0  2  0  0  0  0  0  0
   -3.8210   -0.5000    5.2870 C   0  0  0  0  0  2  0  0  0  0  0  0
  1 25  1  0  0  0  0
  2  6  1  0  0  0  0
  2  1  1  0  0  0  0
  3  4  1  0  0  0  0
  4  6  2  0  0  0  0
  5  3  2  0  0  0  0
  5  7  1  0  0  0  0
  7  2  2  0  0  0  0
  8 17  1  0  0  0  0
  8  3  1  1  0  0  0
  9 11  1  0  0  0  0
 10  9  2  0  0  0  0
 10 12  1  0  0  0  0
 11 13  2  0  0  0  0
 12 14  2  0  0  0  0
 13 15  1  0  0  0  0
 14 13  1  0  0  0  0
 14 16  1  0  0  0  0
 15 17  1  0  0  0  0
 16  8  1  0  0  0  0
 17 20  1  1  0  0  0
 18  9  1  0  0  0  0
 19 18  1  0  0  0  0
 20 21  1  0  0  0  0
 22 20  1  0  0  0  0
 23 21  1  0  0  0  0
 24 23  1  0  0  0  0
 24 22  1  0  0  0  0
 25 26  1  0  0  0  0
 26 27  1  0  0  0  0
 28 27  1  0  0  0  0
 29 27  1  0  0  0  0
 30 28  1  0  0  0  0
 31 29  1  0  0  0  0
 32 31  1  0  0  0  0
 32 30  1  0  0  0  0
M  END
>  <Pose>
9

>  <Score>
-5.076

$$$$
5gs4_ligand_vina_out.pdbqt
 OpenBabel08302322363D

 32 36  0  0  1  0  0  0  0  0999 V2000
   -6.9390   -1.2310    2.6820 O   0  0  0  0  0  0  0  0  0  0  0  0
   -5.9890   -0.3020    3.1400 C   0  0  0  0  0  0  0  0  0  0  0  0
   -4.1030    1.5460    4.1110 C   0  0  0  0  0  0  0  0  0  0  0  0
   -4.9180    0.8500    4.9740 C   0  0  0  0  0  3  0  0  0  0  0  0
   -4.2330    1.3150    2.7640 C   0  0  0  0  0  3  0  0  0  0  0  0
   -5.8410   -0.0540    4.4940 C   0  0  0  0  0  3  0  0  0  0  0  0
   -5.1700    0.3970    2.2780 C   0  0  0  0  0  3  0  0  0  0  0  0
   -3.1220    2.5120    4.6160 C   0  0  2  0  0  3  0  0  0  0  0  0
    1.1120    2.5220    1.7210 C   0  0  0  0  0  0  0  0  0  0  0  0
    0.3120    3.5510    1.3150 C   0  0  0  0  0  3  0  0  0  0  0  0
    0.7040    1.7180    2.7870 C   0  0  0  0  0  3  0  0  0  0  0  0
   -0.8740    3.7820    1.9560 C   0  0  0  0  0  3  0  0  0  0  0  0
   -0.4590    1.9340    3.4270 C   0  0  0  0  0  0  0  0  0  0  0  0
   -1.2700    2.9700    3.0220 C   0  0  0  0  0  0  0  0  0  0  0  0
   -0.9780    0.9190    4.7760 S   0  0  0  0  0  0  0  0  0  0  0  0
   -2.4610    3.2400    3.6290 O   0  0  0  0  0  0  0  0  0  0  0  0
   -2.1860    1.9870    5.6610 C   0  0  2  0  0  3  0  0  0  0  0  0
    2.3050    2.2850    1.0800 O   0  0  0  0  0  0  0  0  0  0  0  0
    3.0940    2.8980    1.1620 H   0  0  0  0  0  0  0  0  0  0  0  0
   -2.8400    1.2650    6.7770 C   0  0  0  0  0  3  0  0  0  0  0  0
   -1.7270    0.5490    7.5590 C   0  0  0  0  0  2  0  0  0  0  0  0
   -3.2380    2.2980    7.8350 C   0  0  0  0  0  2  0  0  0  0  0  0
   -0.9030    1.7010    8.0680 C   0  0  0  0  0  2  0  0  0  0  0  0
   -1.8780    2.8110    8.2890 C   0  0  0  0  0  2  0  0  0  0  0  0
   -8.2820   -0.7970    2.6370 C   0  0  0  0  0  2  0  0  0  0  0  0
   -8.6300   -0.1160    1.3530 C   0  0  0  0  0  2  0  0  0  0  0  0
   -9.4250    1.0570    1.4720 N   0  0  0  0  0  0  0  0  0  0  0  0
   -9.9400    1.2560    2.8140 C   0  0  0  0  0  2  0  0  0  0  0  0
   -8.9090    2.2480    0.8890 C   0  0  0  0  0  2  0  0  0  0  0  0
   -9.5180    2.5680    3.4180 C   0  0  0  0  0  2  0  0  0  0  0  0
   -7.7980    2.8810    1.6930 C   0  0  0  0  0  2  0  0  0  0  0  0
   -8.0310    2.7310    3.1810 C   0  0  0  0  0  2  0  0  0  0  0  0
  1  2  1  0  0  0  0
  2  6  1  0  0  0  0
  3  4  1  0  0  0  0
  5  3  2  0  0  0  0
  6  4  2  0  0  0  0
  7  5  1  0  0  0  0
  7  2  2  0  0  0  0
  8  3  1  6  0  0  0
  8 17  1  0  0  0  0
  9 11  1  0  0  0  0
 10  9  2  0  0  0  0
 10 12  1  0  0  0  0
 11 13  2  0  0  0  0
 12 14  2  0  0  0  0
 13 15  1  0  0  0  0
 14 13  1  0  0  0  0
 14 16  1  0  0  0  0
 15 17  1  0  0  0  0
 16  8  1  0  0  0  0
 17 20  1  1  0  0  0
 18 19  1  0  0  0  0
 18  9  1  0  0  0  0
 20 21  1  0  0  0  0
 20 22  1  0  0  0  0
 21 23  1  0  0  0  0
 22 24  1  0  0  0  0
 23 24  1  0  0  0  0
 25  1  1  0  0  0  0
 26 27  1  0  0  0  0
 26 25  1  0  0  0  0
 27 28  1  0  0  0  0
 28 30  1  0  0  0  0
 29 27  1  0  0  0  0
 29 31  1  0  0  0  0
 31 32  1  0  0  0  0
 32 30  1  0  0  0  0
M  END
>  <Pose>
10

>  <Score>
-3.476

$$$$
